  14
  -249.075168930888     
 C    -4.13936853     2.51593066     0.04139727
 C    -2.78164803     2.36413977     0.07200018
 C    -1.91781224     3.51468637    -0.10385928
 C    -0.53488547     3.54614325    -0.10186152
 C     0.25733068     2.37707280     0.08506861
 N     1.57705483     2.39707106     0.08859422
 H    -4.59429990     3.49817838    -0.11484555
 H    -4.80939257     1.66366459     0.17161743
 H    -2.35664210     1.36887168     0.23011497
 H    -2.42695578     4.47324532    -0.25657075
 H    -0.01828346     4.49953104    -0.24854123
 H     2.09453583     3.26515638    -0.04473669
 H    -0.19923817     1.39574120     0.23654543
 H     2.11758490     1.54587749     0.22464692
