  54
  -868.188958361449     
 C     4.33481827    -0.67239419     1.11655771
 C     5.47305221     0.35843304     1.23606907
 H     6.17875434     0.02053703     1.98982838
 H     5.06011552     1.29783410     1.59863930
 C     6.18112571     0.62040727    -0.08567501
 H     6.62604512    -0.29434087    -0.46486803
 H     6.99649733     1.32310874     0.05718200
 C     5.18917837     1.17240334    -1.10223100
 H     5.62576683     1.15296487    -2.09711077
 H     4.98971279     2.22255231    -0.88901887
 C     3.86489804     0.43168407    -1.12865194
 C     3.46148849    -0.37338828    -0.11864501
 C     2.15296432    -1.09232959    -0.15067037
 H     2.20267857    -2.16732773    -0.13022232
 C     0.94627015    -0.48973748    -0.14109242
 H     0.91406767     0.58691022    -0.13329300
 C    -0.35807936    -1.16609366    -0.14056661
 C    -1.47787152    -0.38769259    -0.13583203
 H    -1.33697743     0.68037206    -0.13474910
 C    -2.84632995    -0.83398050    -0.13169381
 H    -3.03673661    -1.88864923    -0.12907881
 C    -3.90363771     0.02838017    -0.13136791
 H    -3.67399584     1.07849259    -0.13437415
 C    -5.28691661    -0.37340611    -0.12750929
 C    -6.34128549     0.51431621    -0.13230320
 H    -7.34224277     0.12092974    -0.12783940
 C    -6.22203086     1.92696891    -0.14465981
 H    -5.26200876     2.40432087    -0.15072516
 C     4.92086655    -2.09509610     1.00808054
 H     4.13989905    -2.84782633     0.96835465
 H     5.53342693    -2.21416488     0.12208377
 H     5.53628714    -2.31783149     1.87470621
 C     3.49675017    -0.58962350     2.40552029
 H     2.73882870    -1.36378469     2.45413445
 H     4.13879534    -0.70656933     3.27343038
 H     2.99706896     0.37094634     2.48847343
 C     3.06418741     0.70821931    -2.38238679
 H     3.66609307     0.48919169    -3.25991553
 H     2.15456663     0.13117555    -2.45136128
 H     2.80066703     1.76239768    -2.44119522
 C    -0.37480421    -2.67644042    -0.14348225
 H    -1.37209623    -3.09186313    -0.14794429
 H     0.14281075    -3.05784815    -1.01663864
 H     0.13623847    -3.06093276     0.73234681
 C    -5.62592402    -1.84701287    -0.11753495
 H    -6.69538997    -2.00562262    -0.11289168
 H    -5.21731634    -2.33786307    -0.99291809
 H    -5.21099802    -2.32758334     0.76052791
 C    -7.18111278     4.19286561    -0.16334976
 H    -7.67735687     4.57087729     0.71818565
 H    -6.15015695     4.50964325    -0.16814273
 H    -7.68054195     4.55452830    -1.04993822
 N    -7.23679829     2.72825393    -0.14980480
 H    -8.15333136     2.32064842    -0.14441828
