  54
  -868.189700461012     
 C     4.16524645     0.11328734     1.10699259
 C     4.75089799     1.53214826     1.23483407
 H     5.53616853     1.52447078     1.98547174
 H     3.97609926     2.20072589     1.60561499
 C     5.27277848     2.08279033    -0.08481788
 H     6.06529011     1.45018363    -0.47216274
 H     5.70856406     3.06619824     0.06361044
 C     4.13583652     2.16336422    -1.09620999
 H     4.53438149     2.34140496    -2.09131309
 H     3.50568351     3.02462321    -0.87348616
 C     3.25873523     0.92522457    -1.12896431
 C     3.24452082     0.01677993    -0.12621085
 C     2.37616271    -1.19794121    -0.16781594
 H     2.88643813    -2.14512185    -0.16951638
 C     1.02758419    -1.17704347    -0.14405012
 H     0.55225329    -0.21356298    -0.11568573
 C     0.15985650    -2.36281555    -0.15387463
 C    -1.20297064    -2.29070127    -0.14603575
 H    -1.75082752    -3.21729196    -0.15180764
 C    -2.00941296    -1.09794757    -0.13357353
 H    -1.51395038    -0.14714798    -0.12821542
 C    -3.37310055    -1.13537802    -0.13075324
 H    -3.85487457    -2.09794533    -0.13694209
 C    -4.23966199     0.01458116    -0.12196040
 C    -5.59662639    -0.21687618    -0.12436869
 H    -5.93933277    -1.23711847    -0.13200197
 C    -6.59786150     0.78412798    -0.11899569
 H    -6.34349688     1.82543027    -0.11140367
 C     5.30507647    -0.91912990     0.98740994
 H     4.92303442    -1.93396152     0.94382127
 H     5.90545137    -0.75844564     0.09964597
 H     5.96025548    -0.86063570     1.85146428
 C     3.37686628    -0.18170124     2.39617304
 H     3.02358972    -1.20601174     2.43763749
 H     4.00988529    -0.01927761     3.26332059
 H     2.51422666     0.47192461     2.48769533
 C     2.41600923     0.83749039    -2.38273671
 H     3.05368498     0.89393349    -3.26044708
 H     1.83603040    -0.07022511    -2.45247978
 H     1.73204226     1.68226985    -2.44190954
 C     0.81369192    -3.72563191    -0.17223120
 H     0.07387498    -4.51583504    -0.17603438
 H     1.43638504    -3.84570091    -1.05225439
 H     1.44659667    -3.86391708     0.69786485
 C    -3.62405321     1.39473896    -0.11151741
 H    -4.34946901     2.19419871    -0.10330119
 H    -2.99805644     1.51438827     0.76432556
 H    -3.00125196     1.52920459    -0.98751645
 C    -8.94779245     1.51373036    -0.11873373
 H    -9.55400242     1.36749024     0.76302573
 H    -8.52362233     2.50541535    -0.11108183
 H    -9.55015524     1.37949975    -1.00503437
 N    -7.86606533     0.52524417    -0.12315440
 H    -8.14664391    -0.43751424    -0.13031951
