  14
  -249.075168930888     
 C    -4.13936853     2.51593066     0.04139727
 C    -2.78164803     2.36413977     0.07200018
 C    -1.91781224     3.51468637    -0.10385928
 C    -0.53488547     3.54614325    -0.10186152
 C     0.25733068     2.37707280     0.08506861
 N     1.57705483     2.39707106     0.08859422
 H    -4.59429990     3.49817838    -0.11484555
 H    -4.80939257     1.66366459     0.17161743
 H    -2.35664210     1.36887168     0.23011497
 H    -2.42695578     4.47324532    -0.25657075
 H    -0.01828346     4.49953104    -0.24854123
 H     2.09453583     3.26515638    -0.04473669
 H    -0.19923817     1.39574120     0.23654543
 H     2.11758490     1.54587749     0.22464692
  14
  -248.944600132848     
 C    -4.17101768     2.48941493     0.02658609
 C    -2.77521903     2.42862771     0.01595582
 C    -1.96250761     3.59996961    -0.10628761
 C    -0.52801747     3.53290904    -0.07314866
 C     0.24119435     2.34517512     0.18200040
 N     1.59884782     2.37087646     0.06455065
 H    -4.69105877     3.45301093    -0.01756630
 H    -4.77614677     1.57953353     0.08814102
 H    -2.29815214     1.44468599     0.08885671
 H    -2.44224359     4.57519849    -0.22847471
 H     0.02207055     4.46260824    -0.25735050
 H     2.09747984     3.21890925    -0.19942522
 H    -0.20294192     1.38956897     0.46949703
 H     2.15569242     1.53482171     0.22623529
  14
  -248.944723337301     
 C    -4.16760663     2.48386421     0.02241354
 C    -2.77265202     2.42180991    -0.02404233
 C    -1.96821417     3.59579009    -0.09960827
 C    -0.52002775     3.54239918    -0.07314850
 C     0.24439385     2.37318337     0.23127733
 N     1.59717324     2.36131232     0.06101815
 H    -4.68536638     3.44915915     0.05925344
 H    -4.77468920     1.57314942     0.03951314
 H    -2.29227697     1.43616492    -0.02105100
 H    -2.45309758     4.57350449    -0.18044821
 H     0.02111445     4.46699530    -0.30370313
 H     2.10126432     3.17972334    -0.27620128
 H    -0.20476706     1.44442422     0.59259873
 H     2.14273189     1.52383005     0.25169841
  14
  -248.945293183051     
 C    -4.17279425     2.48418589     0.03224984
 C    -2.77777233     2.41216159    -0.07174362
 C    -1.98236829     3.57760735    -0.10101850
 C    -0.50228350     3.54337234    -0.09205461
 C     0.25342734     2.40270452     0.24832796
 N     1.60972226     2.36159008     0.08316293
 H    -4.67760064     3.45119158     0.13972231
 H    -4.78914000     1.57935574     0.03399020
 H    -2.30373545     1.42543438    -0.13851950
 H    -2.46898056     4.55838041    -0.13188557
 H     0.01942101     4.46635293    -0.36845147
 H     2.12634359     3.15312143    -0.29696342
 H    -0.20486553     1.48952536     0.64043373
 H     2.13860634     1.52032638     0.30231973
  14
  -248.946433626176     
 C    -4.17027808     2.47833634     0.03419726
 C    -2.77563882     2.41225215    -0.11664679
 C    -1.98794885     3.57400078    -0.09835935
 C    -0.49395360     3.54915720    -0.10277733
 C     0.25471546     2.42609708     0.27725898
 N     1.60870107     2.35592041     0.09358969
 H    -4.66954233     3.43831094     0.20811700
 H    -4.78641757     1.57374402     0.01599892
 H    -2.30087964     1.43174345    -0.24486989
 H    -2.47745096     4.55458253    -0.07984695
 H     0.02100732     4.46249184    -0.42159923
 H     2.12828623     3.11467337    -0.34480720
 H    -0.20990649     1.53753370     0.71720789
 H     2.12728625     1.51646617     0.34210699
  14
  -248.948079172823     
 C    -4.16604730     2.47158692     0.03616953
 C    -2.77291596     2.41653556    -0.15846866
 C    -1.99064577     3.57415183    -0.09473210
 C    -0.48869655     3.55357896    -0.11591174
 C     0.25409809     2.44632675     0.30222658
 N     1.60467869     2.35052223     0.10429462
 H    -4.66098139     3.42105536     0.26859070
 H    -4.77930351     1.56574244     0.00221957
 H    -2.29713111     1.44536923    -0.34264324
 H    -2.48190367     4.55238038    -0.02563329
 H     0.02266793     4.45335564    -0.47738924
 H     2.12560523     3.07817762    -0.38227876
 H    -0.21612047     1.58249131     0.78436140
 H     2.11467578     1.51403574     0.37876464
  14
  -248.950165730053     
 C    -4.15986047     2.46381831     0.03718459
 C    -2.76947678     2.42382978    -0.19535600
 C    -1.99130521     3.57721574    -0.08857723
 C    -0.48604569     3.55750328    -0.13043108
 C     0.25223196     2.46551967     0.32444825
 N     1.59818285     2.34457005     0.11367714
 H    -4.65183823     3.40040109     0.32118705
 H    -4.76851005     1.55589331    -0.01208565
 H    -2.29231558     1.46462945    -0.43130271
 H    -2.48352034     4.55062341     0.03182571
 H     0.02317348     4.44033944    -0.53530507
 H     2.12012039     3.04193352    -0.41407093
 H    -0.22282139     1.62749269     0.84623243
 H     2.09996506     1.51154023     0.41214352
  14
  -248.952625145644     
 C    -4.15440911     2.45764334     0.03706766
 C    -2.76803150     2.43204841    -0.22908393
 C    -1.99058578     3.57902681    -0.08087798
 C    -0.48532839     3.55809824    -0.14550016
 C     0.25157899     2.48272597     0.34508488
 N     1.59234432     2.34035238     0.12234243
 H    -4.64197775     3.38075676     0.36791288
 H    -4.75957605     1.54864473    -0.02711326
 H    -2.29173630     1.48572298    -0.51341297
 H    -2.48195838     4.54575430     0.09076305
 H     0.02137569     4.42159592    -0.59407210
 H     2.11323894     3.01029105    -0.44042861
 H    -0.22558613     1.67018721     0.90412506
 H     2.08863146     1.51246188     0.44276308
  14
  -248.955396040536     
 C    -4.15069625     2.45346080     0.03500073
 C    -2.76907941     2.44060780    -0.25879987
 C    -1.98883332     3.57871299    -0.07073984
 C    -0.48611851     3.55526404    -0.15987822
 C     0.25322839     2.49863768     0.36494224
 N     1.58836559     2.33811873     0.12979606
 H    -4.63316060     3.36316516     0.40707821
 H    -4.75382639     1.54464083    -0.04494345
 H    -2.29576723     1.50754416    -0.58781720
 H    -2.47712404     4.53713044     0.15192764
 H     0.01631461     4.39767352    -0.65233841
 H     2.10581697     2.98213032    -0.46503854
 H    -0.22287400     1.71115730     0.95957542
 H     2.08173421     1.51706622     0.47080526
  14
  -248.958421483417     
 C    -4.14865586     2.45107403     0.03161941
 C    -2.77226335     2.44921993    -0.28564415
 C    -1.98637382     3.57599547    -0.05910807
 C    -0.48808438     3.54948146    -0.17364497
 C     0.25702042     2.51381159     0.38421448
 N     1.58615172     2.33741445     0.13612566
 H    -4.62470740     3.34708083     0.44254642
 H    -4.75175849     1.54431540    -0.06648815
 H    -2.30417901     1.52988545    -0.65738730
 H    -2.46976849     4.52434561     0.21398277
 H     0.00839027     4.36910226    -0.70971824
 H     2.09820683     2.95639645    -0.48868653
 H    -0.21513595     1.75173749     1.01391950
 H     2.07913754     1.52544959     0.49783921
  14
  -248.961644709321     
 C    -4.14902738     2.45115415     0.02727947
 C    -2.77822423     2.45736984    -0.30991576
 C    -1.98346077     3.56986881    -0.04638960
 C    -0.49099496     3.53980353    -0.18702996
 C     0.26326131     2.52756915     0.40203178
 N     1.58651385     2.33873217     0.14160172
 H    -4.61682472     3.33366465     0.47469983
 H    -4.75488288     1.54892967    -0.09100692
 H    -2.31809983     1.55184106    -0.72260056
 H    -2.45958579     4.50668353     0.27653488
 H    -0.00274837     4.33528582    -0.76623828
 H     2.09176141     2.93499318    -0.50969347
 H    -0.20205132     1.79039992     1.06533876
 H     2.08234370     1.53901452     0.52495816
  14
  -248.965021894255     
 C    -4.15201710     2.45329021     0.02212867
 C    -2.78685666     2.46509194    -0.33230764
 C    -1.98034930     3.56080849    -0.03296914
 C    -0.49421813     3.52663696    -0.19982498
 C     0.27175426     2.54033412     0.41847388
 N     1.58946647     2.34190471     0.14668426
 H    -4.60989316     3.32205339     0.50484784
 H    -4.76309329     1.55805486    -0.11821651
 H    -2.33696978     1.57380091    -0.78470235
 H    -2.44696482     4.48457634     0.33890020
 H    -0.01631296     4.29666510    -0.82133019
 H     2.08670402     2.91677474    -0.52898767
 H    -0.18411482     1.82787317     1.11426279
 H     2.09084531     1.55744506     0.55261088
  14
  -248.968554723484     
 C    -4.15716765     2.45747812     0.01659232
 C    -2.79794590     2.47220612    -0.35373206
 C    -1.97710111     3.54859388    -0.01944425
 C    -0.49750915     3.50995902    -0.21220552
 C     0.28194142     2.55192740     0.43309900
 N     1.59481930     2.34752001     0.15243441
 H    -4.60303698     3.31218571     0.53398622
 H    -4.77608155     1.57185105    -0.14678584
 H    -2.36050387     1.59583582    -0.84514000
 H    -2.43220437     4.45772814     0.40046231
 H    -0.03185368     4.25339656    -0.87469597
 H     2.08307706     2.90184056    -0.54616785
 H    -0.16237217     1.86407977     1.16015277
 H     2.10391868     1.58070785     0.58101449
  14
  -248.972275960282     
 C    -4.16392093     2.46345655     0.01040183
 C    -2.81083287     2.47863893    -0.37467719
 C    -1.97361683     3.53328229    -0.00605246
 C    -0.50092458     3.49048982    -0.22339006
 C     0.29360100     2.56297326     0.44719726
 N     1.60205934     2.35532858     0.15860240
 H    -4.59573275     3.30345800     0.56230985
 H    -4.79320246     1.59022080    -0.17699214
 H    -2.38759305     1.61808933    -0.90433768
 H    -2.41609139     4.42599810     0.46060076
 H    -0.04896667     4.20632868    -0.92509104
 H     2.07961748     2.88843431    -0.56328365
 H    -0.13716020     1.90042336     1.20498813
 H     2.12074395     1.60818798     0.60929401
  14
  -248.976210893579     
 C    -4.17127317     2.47092906     0.00367906
 C    -2.82467277     2.48444345    -0.39508074
 C    -1.96983659     3.51516158     0.00716076
 C    -0.50480489     3.46881982    -0.23331570
 C     0.30604784     2.57381421     0.46105000
 N     1.61032695     2.36477565     0.16475423
 H    -4.58745148     3.29542522     0.58964734
 H    -4.81314442     1.61287544    -0.20856616
 H    -2.41676688     1.64077459    -0.96202718
 H    -2.39898297     4.38960504     0.51916967
 H    -0.06769144     4.15607191    -0.97235917
 H     2.07589658     2.87585891    -0.58036995
 H    -0.10973212     1.93756755     1.24891569
 H     2.14006539     1.63918756     0.63691215
  14
  -248.980373108830     
 C    -4.17778816     2.47825011    -0.00316216
 C    -2.83819700     2.49093862    -0.41581110
 C    -1.96578357     3.49610430     0.01992370
 C    -0.50894618     3.44718644    -0.24209220
 C     0.31832790     2.58598083     0.47522263
 N     1.61787565     2.37384706     0.17043889
 H    -4.57791454     3.28525271     0.61710797
 H    -4.83267360     1.63688627    -0.24027415
 H    -2.44567555     1.66620054    -1.01972700
 H    -2.38174876     4.35003833     0.57595192
 H    -0.08696063     4.10487361    -1.01618445
 H     2.07068241     2.85974384    -0.59888932
 H    -0.08212883     1.97856365     1.29300731
 H     2.15891087     1.67144369     0.66405796
  14
  -248.984783188355     
 C    -4.18418508     2.48566286    -0.01014182
 C    -2.85181813     2.49777772    -0.43670681
 C    -1.96151897     3.47562594     0.03200167
 C    -0.51313128     3.42520243    -0.24967491
 C     0.33086890     2.59936330     0.49002428
 N     1.62512601     2.38280574     0.17569876
 H    -4.56742544     3.27291851     0.64501046
 H    -4.85292369     1.66310132    -0.27262763
 H    -2.47513529     1.69390538    -1.07726404
 H    -2.36425349     4.30713599     0.63043054
 H    -0.10615332     4.05229366    -1.05653828
 H     2.06406418     2.84104150    -0.61819417
 H    -0.05368329     2.02318859     1.33735778
 H     2.17814890     1.70528705     0.69019418
  14
  -248.989496364841     
 C    -4.18937621     2.49130871    -0.01714316
 C    -2.86423943     2.50628181    -0.45762021
 C    -1.95675263     3.45555612     0.04352597
 C    -0.51719127     3.40544217    -0.25637870
 C     0.34293136     2.61589502     0.50623041
 N     1.62972633     2.38936205     0.17981541
 H    -4.55656517     3.25495205     0.67397526
 H    -4.87071044     1.68822942    -0.30566307
 H    -2.50282402     1.72629384    -1.13513036
 H    -2.34600940     4.26266606     0.68302197
 H    -0.12347141     4.00063145    -1.09334417
 H     2.05365063     2.81511829    -0.64000427
 H    -0.02588418     2.07571210     1.38363779
 H     2.19469585     1.73786089     0.71464715
  14
  -248.991862217530     
 C    -4.25838868     2.56781489    -0.04667253
 C    -2.91496966     2.44388122    -0.39424247
 C    -1.95244865     3.34971920     0.09169569
 C    -0.52970318     3.28592606    -0.26761333
 C     0.39073088     2.54372810     0.47411125
 N     1.70181315     2.47442546     0.18560051
 H    -4.59016110     3.36238717     0.62738667
 H    -5.00799447     1.88128363    -0.44068702
 H    -2.59850732     1.65022337    -1.07887105
 H    -2.27916073     4.14717599     0.77584845
 H    -0.19396528     3.84638063    -1.15236258
 H     2.09853205     2.96627161    -0.61073276
 H     0.06833006     1.97439203     1.35131382
 H     2.33387295     1.93170062     0.76479537
